@<TRIPOS>MOLECULE
184
   57    60     0     0     0
SMALL
NO_CHARGES

@<TRIPOS>ATOM
      1 C1          1.3810   -0.2850    6.5660 C.2       1 184_ideal         0.0000
      2 C2          0.6100   -0.2730    5.3070 C.ar      1 184_ideal         0.0000
      3 C3         -0.1960   -1.3760    4.9720 C.ar      1 184_ideal         0.0000
      4 C4         -0.9130   -1.3890    3.8200 C.ar      1 184_ideal         0.0000
      5 C5         -0.8570   -0.2900    2.9440 C.ar      1 184_ideal         0.0000
      6 C6         -0.0470    0.8270    3.2700 C.ar      1 184_ideal         0.0000
      7 C7          0.6870    0.8230    4.4640 C.ar      1 184_ideal         0.0000
      8 C8          0.1070    0.4760   -3.2590 C.ar      1 184_ideal         0.0000
      9 C9          0.9660    1.4180   -4.0610 C.3       1 184_ideal         0.0000
     10 C10         2.0440    0.6480   -4.8210 C.3       1 184_ideal         0.0000
     11 C11         1.3700   -0.4920   -5.5930 C.3       1 184_ideal         0.0000
     12 C12         0.8810   -1.5310   -4.5870 C.3       1 184_ideal         0.0000
     13 C13         0.0640   -0.8760   -3.5050 C.ar      1 184_ideal         0.0000
     14 C14         1.6330    2.4210   -3.1180 C.3       1 184_ideal         0.0000
     15 C15         0.0880    2.1730   -5.0610 C.3       1 184_ideal         0.0000
     16 C16         0.0200   -2.5680   -5.3120 C.3       1 184_ideal         0.0000
     17 C17         2.0870   -2.2300   -3.9560 C.3       1 184_ideal         0.0000
     18 O1          2.0790    0.6640    6.8600 O.2       1 184_ideal         0.0000
     19 O2          1.3100   -1.3490    7.3900 O.3       1 184_ideal         0.0000
     20 C18        -1.5960   -0.2780    1.7490 C.ar      1 184_ideal         0.0000
     21 C19        -1.5180    0.7960    0.9170 C.ar      1 184_ideal         0.0000
     22 C20        -0.7220    1.8950    1.2370 C.ar      1 184_ideal         0.0000
     23 C21         0.0030    1.9220    2.3880 C.ar      1 184_ideal         0.0000
     24 C22        -1.4750    0.2060   -1.4700 C.ar      1 184_ideal         0.0000
     25 C23        -0.6640    1.0150   -2.2380 C.ar      1 184_ideal         0.0000
     26 C24        -0.7540   -1.6900   -2.7310 C.ar      1 184_ideal         0.0000
     27 C25        -1.5210   -1.1530   -1.7190 C.ar      1 184_ideal         0.0000
     28 C26        -2.3080    0.8010   -0.3650 C.3       1 184_ideal         0.0000
     29 O3         -3.4970    0.0270   -0.1940 O.3       1 184_ideal         0.0000
     30 H1         -0.2440   -2.2230    5.6400 H         1 184_ideal         0.0000
     31 H2         -1.5280   -2.2430    3.5770 H         1 184_ideal         0.0000
     32 H3          1.3080    1.6670    4.7240 H         1 184_ideal         0.0000
     33 H4          2.7670    0.2360   -4.1160 H         1 184_ideal         0.0000
     34 H5          2.5500    1.3150   -5.5180 H         1 184_ideal         0.0000
     35 H6          2.0890   -0.9490   -6.2740 H         1 184_ideal         0.0000
     36 H7          0.5240   -0.1020   -6.1590 H         1 184_ideal         0.0000
     37 H8          0.8660    2.9730   -2.5740 H         1 184_ideal         0.0000
     38 H9          2.2670    1.8870   -2.4100 H         1 184_ideal         0.0000
     39 H10         2.2400    3.1170   -3.6970 H         1 184_ideal         0.0000
     40 H11        -0.6830    2.7250   -4.5230 H         1 184_ideal         0.0000
     41 H12         0.7020    2.8700   -5.6310 H         1 184_ideal         0.0000
     42 H13        -0.3810    1.4630   -5.7410 H         1 184_ideal         0.0000
     43 H14        -0.3230   -3.3170   -4.5990 H         1 184_ideal         0.0000
     44 H15        -0.8400   -2.0740   -5.7630 H         1 184_ideal         0.0000
     45 H16         0.6100   -3.0510   -6.0900 H         1 184_ideal         0.0000
     46 H17         1.7410   -2.9800   -3.2450 H         1 184_ideal         0.0000
     47 H18         2.6760   -2.7130   -4.7360 H         1 184_ideal         0.0000
     48 H19         2.7030   -1.4950   -3.4390 H         1 184_ideal         0.0000
     49 H20         1.8150   -1.3560    8.2150 H         1 184_ideal         0.0000
     50 H21        -2.2200   -1.1200    1.4890 H         1 184_ideal         0.0000
     51 H22        -0.6800    2.7360    0.5620 H         1 184_ideal         0.0000
     52 H23         0.6160    2.7800    2.6230 H         1 184_ideal         0.0000
     53 H24        -0.6290    2.0770   -2.0440 H         1 184_ideal         0.0000
     54 H25        -0.7890   -2.7520   -2.9230 H         1 184_ideal         0.0000
     55 H26        -2.1560   -1.7910   -1.1220 H         1 184_ideal         0.0000
     56 H27        -2.5760    1.8260   -0.6220 H         1 184_ideal         0.0000
     57 H28        -3.2170   -0.8690    0.0310 H         1 184_ideal         0.0000
@<TRIPOS>BOND
     1    1    2 1
     2    1   18 2
     3    1   19 1
     4    2    3 ar
     5    2    7 ar
     6    3    4 ar
     7    3   30 1
     8    4    5 ar
     9    4   31 1
    10    5    6 ar
    11    5   20 ar
    12    6    7 ar
    13    6   23 ar
    14    7   32 1
    15    8    9 1
    16    8   13 ar
    17    8   25 ar
    18    9   10 1
    19    9   14 1
    20    9   15 1
    21   10   11 1
    22   10   33 1
    23   10   34 1
    24   11   12 1
    25   11   35 1
    26   11   36 1
    27   12   13 1
    28   12   16 1
    29   12   17 1
    30   13   26 ar
    31   14   37 1
    32   14   38 1
    33   14   39 1
    34   15   40 1
    35   15   41 1
    36   15   42 1
    37   16   43 1
    38   16   44 1
    39   16   45 1
    40   17   46 1
    41   17   47 1
    42   17   48 1
    43   19   49 1
    44   20   21 ar
    45   20   50 1
    46   21   22 ar
    47   21   28 1
    48   22   23 ar
    49   22   51 1
    50   23   52 1
    51   24   25 ar
    52   24   27 ar
    53   24   28 1
    54   25   53 1
    55   26   27 ar
    56   26   54 1
    57   27   55 1
    58   28   29 1
    59   28   56 1
    60   29   57 1
