@<TRIPOS>MOLECULE
564
   55    58     0     0     0
SMALL
NO_CHARGES

@<TRIPOS>ATOM
      1 C1          1.0820   -0.3170    6.8990 C.2       1 564_ideal         0.0000
      2 C2          0.6930   -0.2170    5.4780 C.ar      1 564_ideal         0.0000
      3 C3          1.6640   -0.3900    4.4750 C.ar      1 564_ideal         0.0000
      4 C4          1.3300   -0.3020    3.1620 C.ar      1 564_ideal         0.0000
      5 C5         -0.0000   -0.0360    2.7890 C.ar      1 564_ideal         0.0000
      6 C6         -0.9890    0.1390    3.7910 C.ar      1 564_ideal         0.0000
      7 C7         -0.6250    0.0450    5.1420 C.ar      1 564_ideal         0.0000
      8 C8         -0.3220   -0.1960   -3.5950 C.ar      1 564_ideal         0.0000
      9 C9         -0.6650   -0.8610   -4.9020 C.3       1 564_ideal         0.0000
     10 C10         0.3010   -0.4210   -5.9990 C.3       1 564_ideal         0.0000
     11 C11         1.7330   -0.6140   -5.4870 C.3       1 564_ideal         0.0000
     12 C12         1.9980    0.4190   -4.3950 C.3       1 564_ideal         0.0000
     13 C13         0.9030    0.3870   -3.3590 C.ar      1 564_ideal         0.0000
     14 C14        -2.0910   -0.4780   -5.3040 C.3       1 564_ideal         0.0000
     15 C15        -0.5790   -2.3790   -4.7330 C.3       1 564_ideal         0.0000
     16 C16         3.3370    0.1110   -3.7230 C.3       1 564_ideal         0.0000
     17 C17         2.0570    1.8130   -5.0230 C.3       1 564_ideal         0.0000
     18 O1          0.2470   -0.1680    7.7690 O.2       1 564_ideal         0.0000
     19 O2          2.3620   -0.5730    7.2310 O.3       1 564_ideal         0.0000
     20 C18        -0.3650    0.0520    1.4370 C.ar      1 564_ideal         0.0000
     21 C19        -1.6830    0.3200    1.1020 C.ar      1 564_ideal         0.0000
     22 C20        -2.6540    0.4920    2.1060 C.ar      1 564_ideal         0.0000
     23 C21        -2.3200    0.4050    3.4180 C.ar      1 564_ideal         0.0000
     24 C22        -1.0350    0.4090   -1.3710 C.ar      1 564_ideal         0.0000
     25 C23        -1.2920   -0.1850   -2.6050 C.ar      1 564_ideal         0.0000
     26 C24         1.1640    0.9810   -2.1290 C.ar      1 564_ideal         0.0000
     27 C25         0.2100    0.9960   -1.1380 C.ar      1 564_ideal         0.0000
     28 C26        -2.0720    0.4190   -0.3190 C.2       1 564_ideal         0.0000
     29 O3         -3.2460    0.5100   -0.6230 O.2       1 564_ideal         0.0000
     30 H1          2.6870   -0.5940    4.7530 H         1 564_ideal         0.0000
     31 H2          2.0870   -0.4360    2.4030 H         1 564_ideal         0.0000
     32 H3         -1.3670    0.1770    5.9160 H         1 564_ideal         0.0000
     33 H4          0.1340    0.6300   -6.2360 H         1 564_ideal         0.0000
     34 H5          0.1440   -1.0270   -6.8920 H         1 564_ideal         0.0000
     35 H6          2.4380   -0.4720   -6.3060 H         1 564_ideal         0.0000
     36 H7          1.8440   -1.6180   -5.0770 H         1 564_ideal         0.0000
     37 H8         -2.7850   -0.7910   -4.5230 H         1 564_ideal         0.0000
     38 H9         -2.1550    0.6010   -5.4340 H         1 564_ideal         0.0000
     39 H10        -2.3510   -0.9740   -6.2390 H         1 564_ideal         0.0000
     40 H11        -1.2680   -2.6970   -3.9510 H         1 564_ideal         0.0000
     41 H12        -0.8460   -2.8650   -5.6720 H         1 564_ideal         0.0000
     42 H13         0.4370   -2.6560   -4.4560 H         1 564_ideal         0.0000
     43 H14         3.5340    0.8530   -2.9490 H         1 564_ideal         0.0000
     44 H15         3.2990   -0.8810   -3.2740 H         1 564_ideal         0.0000
     45 H16         4.1330    0.1430   -4.4680 H         1 564_ideal         0.0000
     46 H17         2.2550    2.5530   -4.2480 H         1 564_ideal         0.0000
     47 H18         2.8540    1.8430   -5.7670 H         1 564_ideal         0.0000
     48 H19         1.1040    2.0360   -5.5030 H         1 564_ideal         0.0000
     49 H20         2.6170   -0.6380    8.1620 H         1 564_ideal         0.0000
     50 H21         0.3750   -0.0830    0.6630 H         1 564_ideal         0.0000
     51 H22        -3.6770    0.6960    1.8280 H         1 564_ideal         0.0000
     52 H23        -3.0760    0.5400    4.1770 H         1 564_ideal         0.0000
     53 H24        -2.2540   -0.6400   -2.7910 H         1 564_ideal         0.0000
     54 H25         2.1270    1.4360   -1.9490 H         1 564_ideal         0.0000
     55 H26         0.4230    1.4590   -0.1850 H         1 564_ideal         0.0000
@<TRIPOS>BOND
     1    1    2 1
     2    1   18 2
     3    1   19 1
     4    2    3 ar
     5    2    7 ar
     6    3    4 ar
     7    3   30 1
     8    4    5 ar
     9    4   31 1
    10    5    6 ar
    11    5   20 ar
    12    6    7 ar
    13    6   23 ar
    14    7   32 1
    15    8    9 1
    16    8   13 ar
    17    8   25 ar
    18    9   10 1
    19    9   14 1
    20    9   15 1
    21   10   11 1
    22   10   33 1
    23   10   34 1
    24   11   12 1
    25   11   35 1
    26   11   36 1
    27   12   13 1
    28   12   16 1
    29   12   17 1
    30   13   26 ar
    31   14   37 1
    32   14   38 1
    33   14   39 1
    34   15   40 1
    35   15   41 1
    36   15   42 1
    37   16   43 1
    38   16   44 1
    39   16   45 1
    40   17   46 1
    41   17   47 1
    42   17   48 1
    43   19   49 1
    44   20   21 ar
    45   20   50 1
    46   21   22 ar
    47   21   28 1
    48   22   23 ar
    49   22   51 1
    50   23   52 1
    51   24   25 ar
    52   24   27 ar
    53   24   28 1
    54   25   53 1
    55   26   27 ar
    56   26   54 1
    57   27   55 1
    58   28   29 2
